<?xml version="1.0" encoding="UTF-8"?>

<!-- generated on 2025-02-07 16:36:31 by Eclipse SUMO netedit Version 1.16.0
<configuration xmlns:xsi="http://www.w3.org/2001/XMLSchema-instance" xsi:noNamespaceSchemaLocation="http://sumo.dlr.de/xsd/netconvertConfiguration.xsd">

    <input>
        <sumo-net-file value="F:\PythonCode\Multi-Signal-Control\intersection\environment.net.xml"/>
    </input>

    <output>
        <output-file value="F:\PythonCode\Multi-Signal-Control\intersection\environment.net.xml"/>
    </output>

    <processing>
        <geometry.min-radius.fix.railways value="false"/>
        <geometry.max-grade.fix value="false"/>
        <offset.disable-normalization value="true"/>
        <lefthand value="0"/>
    </processing>

    <junctions>
        <no-turnarounds value="true"/>
        <junctions.corner-detail value="5"/>
        <junctions.limit-turn-speed value="5.50"/>
        <rectangular-lane-cut value="0"/>
    </junctions>

    <pedestrian>
        <walkingareas value="0"/>
    </pedestrian>

</configuration>
-->

<net version="1.16" junctionCornerDetail="5" limitTurnSpeed="5.50" xmlns:xsi="http://www.w3.org/2001/XMLSchema-instance" xsi:noNamespaceSchemaLocation="http://sumo.dlr.de/xsd/net_file.xsd">

    <location netOffset="0.00,0.00" convBoundary="0.00,0.00,3750.00,3750.00" origBoundary="-10000000000.00,-10000000000.00,10000000000.00,10000000000.00" projParameter="!"/>

    <edge id=":J0#0_0" function="internal">
        <lane id=":J0#0_0_0" index="0" speed="6.51" length="9.03" shape="738.80,766.80 738.45,764.35 737.40,762.60 735.65,761.55 733.20,761.20"/>
    </edge>
    <edge id=":J0#0_1" function="internal">
        <lane id=":J0#0_1_0" index="0" speed="13.89" length="33.60" shape="738.80,766.80 738.80,733.20"/>
        <lane id=":J0#0_1_1" index="1" speed="13.89" length="33.60" shape="742.00,766.80 742.00,733.20"/>
        <lane id=":J0#0_1_2" index="2" speed="13.89" length="33.60" shape="745.20,766.80 745.20,733.20"/>
    </edge>
    <edge id=":J0#0_4" function="internal">
        <lane id=":J0#0_4_0" index="0" speed="11.36" length="29.67" shape="748.40,766.80 749.55,758.75 753.00,753.00 758.75,749.55 766.80,748.40"/>
    </edge>
    <edge id=":J0#0_5" function="internal">
        <lane id=":J0#0_5_0" index="0" speed="6.51" length="9.03" shape="766.80,761.20 764.35,761.55 762.60,762.60 761.55,764.35 761.20,766.80"/>
    </edge>
    <edge id=":J0#0_6" function="internal">
        <lane id=":J0#0_6_0" index="0" speed="13.89" length="33.60" shape="766.80,761.20 733.20,761.20"/>
        <lane id=":J0#0_6_1" index="1" speed="13.89" length="33.60" shape="766.80,758.00 733.20,758.00"/>
        <lane id=":J0#0_6_2" index="2" speed="13.89" length="33.60" shape="766.80,754.80 733.20,754.80"/>
    </edge>
    <edge id=":J0#0_9" function="internal">
        <lane id=":J0#0_9_0" index="0" speed="11.36" length="29.67" shape="766.80,751.60 758.75,750.45 753.00,747.00 749.55,741.25 748.40,733.20"/>
    </edge>
    <edge id=":J0#0_10" function="internal">
        <lane id=":J0#0_10_0" index="0" speed="6.51" length="9.03" shape="761.20,733.20 761.55,735.65 762.60,737.40 764.35,738.45 766.80,738.80"/>
    </edge>
    <edge id=":J0#0_11" function="internal">
        <lane id=":J0#0_11_0" index="0" speed="13.89" length="33.60" shape="761.20,733.20 761.20,766.80"/>
        <lane id=":J0#0_11_1" index="1" speed="13.89" length="33.60" shape="758.00,733.20 758.00,766.80"/>
        <lane id=":J0#0_11_2" index="2" speed="13.89" length="33.60" shape="754.80,733.20 754.80,766.80"/>
    </edge>
    <edge id=":J0#0_14" function="internal">
        <lane id=":J0#0_14_0" index="0" speed="11.36" length="29.67" shape="751.60,733.20 750.45,741.25 747.00,747.00 741.25,750.45 733.20,751.60"/>
    </edge>
    <edge id=":J0#0_15" function="internal">
        <lane id=":J0#0_15_0" index="0" speed="6.51" length="9.03" shape="733.20,738.80 735.65,738.45 737.40,737.40 738.45,735.65 738.80,733.20"/>
    </edge>
    <edge id=":J0#0_16" function="internal">
        <lane id=":J0#0_16_0" index="0" speed="13.89" length="33.60" shape="733.20,738.80 766.80,738.80"/>
        <lane id=":J0#0_16_1" index="1" speed="13.89" length="33.60" shape="733.20,742.00 766.80,742.00"/>
        <lane id=":J0#0_16_2" index="2" speed="13.89" length="33.60" shape="733.20,745.20 766.80,745.20"/>
    </edge>
    <edge id=":J0#0_19" function="internal">
        <lane id=":J0#0_19_0" index="0" speed="11.36" length="29.67" shape="733.20,748.40 741.25,749.55 747.00,753.00 750.45,758.75 751.60,766.80"/>
    </edge>
    <edge id=":J0#1_0" function="internal">
        <lane id=":J0#1_0_0" index="0" speed="6.51" length="9.03" shape="738.80,1516.80 738.45,1514.35 737.40,1512.60 735.65,1511.55 733.20,1511.20"/>
    </edge>
    <edge id=":J0#1_1" function="internal">
        <lane id=":J0#1_1_0" index="0" speed="13.89" length="33.60" shape="738.80,1516.80 738.80,1483.20"/>
        <lane id=":J0#1_1_1" index="1" speed="13.89" length="33.60" shape="742.00,1516.80 742.00,1483.20"/>
        <lane id=":J0#1_1_2" index="2" speed="13.89" length="33.60" shape="745.20,1516.80 745.20,1483.20"/>
    </edge>
    <edge id=":J0#1_4" function="internal">
        <lane id=":J0#1_4_0" index="0" speed="11.36" length="29.67" shape="748.40,1516.80 749.55,1508.75 753.00,1503.00 758.75,1499.55 766.80,1498.40"/>
    </edge>
    <edge id=":J0#1_5" function="internal">
        <lane id=":J0#1_5_0" index="0" speed="6.51" length="9.03" shape="766.80,1511.20 764.35,1511.55 762.60,1512.60 761.55,1514.35 761.20,1516.80"/>
    </edge>
    <edge id=":J0#1_6" function="internal">
        <lane id=":J0#1_6_0" index="0" speed="13.89" length="33.60" shape="766.80,1511.20 733.20,1511.20"/>
        <lane id=":J0#1_6_1" index="1" speed="13.89" length="33.60" shape="766.80,1508.00 733.20,1508.00"/>
        <lane id=":J0#1_6_2" index="2" speed="13.89" length="33.60" shape="766.80,1504.80 733.20,1504.80"/>
    </edge>
    <edge id=":J0#1_9" function="internal">
        <lane id=":J0#1_9_0" index="0" speed="11.36" length="29.67" shape="766.80,1501.60 758.75,1500.45 753.00,1497.00 749.55,1491.25 748.40,1483.20"/>
    </edge>
    <edge id=":J0#1_10" function="internal">
        <lane id=":J0#1_10_0" index="0" speed="6.51" length="9.03" shape="761.20,1483.20 761.55,1485.65 762.60,1487.40 764.35,1488.45 766.80,1488.80"/>
    </edge>
    <edge id=":J0#1_11" function="internal">
        <lane id=":J0#1_11_0" index="0" speed="13.89" length="33.60" shape="761.20,1483.20 761.20,1516.80"/>
        <lane id=":J0#1_11_1" index="1" speed="13.89" length="33.60" shape="758.00,1483.20 758.00,1516.80"/>
        <lane id=":J0#1_11_2" index="2" speed="13.89" length="33.60" shape="754.80,1483.20 754.80,1516.80"/>
    </edge>
    <edge id=":J0#1_14" function="internal">
        <lane id=":J0#1_14_0" index="0" speed="11.36" length="29.67" shape="751.60,1483.20 750.45,1491.25 747.00,1497.00 741.25,1500.45 733.20,1501.60"/>
    </edge>
    <edge id=":J0#1_15" function="internal">
        <lane id=":J0#1_15_0" index="0" speed="6.51" length="9.03" shape="733.20,1488.80 735.65,1488.45 737.40,1487.40 738.45,1485.65 738.80,1483.20"/>
    </edge>
    <edge id=":J0#1_16" function="internal">
        <lane id=":J0#1_16_0" index="0" speed="13.89" length="33.60" shape="733.20,1488.80 766.80,1488.80"/>
        <lane id=":J0#1_16_1" index="1" speed="13.89" length="33.60" shape="733.20,1492.00 766.80,1492.00"/>
        <lane id=":J0#1_16_2" index="2" speed="13.89" length="33.60" shape="733.20,1495.20 766.80,1495.20"/>
    </edge>
    <edge id=":J0#1_19" function="internal">
        <lane id=":J0#1_19_0" index="0" speed="11.36" length="29.67" shape="733.20,1498.40 741.25,1499.55 747.00,1503.00 750.45,1508.75 751.60,1516.80"/>
    </edge>
    <edge id=":J0#2_0" function="internal">
        <lane id=":J0#2_0_0" index="0" speed="6.51" length="9.03" shape="738.80,2266.80 738.45,2264.35 737.40,2262.60 735.65,2261.55 733.20,2261.20"/>
    </edge>
    <edge id=":J0#2_1" function="internal">
        <lane id=":J0#2_1_0" index="0" speed="13.89" length="33.60" shape="738.80,2266.80 738.80,2233.20"/>
        <lane id=":J0#2_1_1" index="1" speed="13.89" length="33.60" shape="742.00,2266.80 742.00,2233.20"/>
        <lane id=":J0#2_1_2" index="2" speed="13.89" length="33.60" shape="745.20,2266.80 745.20,2233.20"/>
    </edge>
    <edge id=":J0#2_4" function="internal">
        <lane id=":J0#2_4_0" index="0" speed="11.36" length="29.67" shape="748.40,2266.80 749.55,2258.75 753.00,2253.00 758.75,2249.55 766.80,2248.40"/>
    </edge>
    <edge id=":J0#2_5" function="internal">
        <lane id=":J0#2_5_0" index="0" speed="6.51" length="9.03" shape="766.80,2261.20 764.35,2261.55 762.60,2262.60 761.55,2264.35 761.20,2266.80"/>
    </edge>
    <edge id=":J0#2_6" function="internal">
        <lane id=":J0#2_6_0" index="0" speed="13.89" length="33.60" shape="766.80,2261.20 733.20,2261.20"/>
        <lane id=":J0#2_6_1" index="1" speed="13.89" length="33.60" shape="766.80,2258.00 733.20,2258.00"/>
        <lane id=":J0#2_6_2" index="2" speed="13.89" length="33.60" shape="766.80,2254.80 733.20,2254.80"/>
    </edge>
    <edge id=":J0#2_9" function="internal">
        <lane id=":J0#2_9_0" index="0" speed="11.36" length="29.67" shape="766.80,2251.60 758.75,2250.45 753.00,2247.00 749.55,2241.25 748.40,2233.20"/>
    </edge>
    <edge id=":J0#2_10" function="internal">
        <lane id=":J0#2_10_0" index="0" speed="6.51" length="9.03" shape="761.20,2233.20 761.55,2235.65 762.60,2237.40 764.35,2238.45 766.80,2238.80"/>
    </edge>
    <edge id=":J0#2_11" function="internal">
        <lane id=":J0#2_11_0" index="0" speed="13.89" length="33.60" shape="761.20,2233.20 761.20,2266.80"/>
        <lane id=":J0#2_11_1" index="1" speed="13.89" length="33.60" shape="758.00,2233.20 758.00,2266.80"/>
        <lane id=":J0#2_11_2" index="2" speed="13.89" length="33.60" shape="754.80,2233.20 754.80,2266.80"/>
    </edge>
    <edge id=":J0#2_14" function="internal">
        <lane id=":J0#2_14_0" index="0" speed="11.36" length="29.67" shape="751.60,2233.20 750.45,2241.25 747.00,2247.00 741.25,2250.45 733.20,2251.60"/>
    </edge>
    <edge id=":J0#2_15" function="internal">
        <lane id=":J0#2_15_0" index="0" speed="6.51" length="9.03" shape="733.20,2238.80 735.65,2238.45 737.40,2237.40 738.45,2235.65 738.80,2233.20"/>
    </edge>
    <edge id=":J0#2_16" function="internal">
        <lane id=":J0#2_16_0" index="0" speed="13.89" length="33.60" shape="733.20,2238.80 766.80,2238.80"/>
        <lane id=":J0#2_16_1" index="1" speed="13.89" length="33.60" shape="733.20,2242.00 766.80,2242.00"/>
        <lane id=":J0#2_16_2" index="2" speed="13.89" length="33.60" shape="733.20,2245.20 766.80,2245.20"/>
    </edge>
    <edge id=":J0#2_19" function="internal">
        <lane id=":J0#2_19_0" index="0" speed="11.36" length="29.67" shape="733.20,2248.40 741.25,2249.55 747.00,2253.00 750.45,2258.75 751.60,2266.80"/>
    </edge>
    <edge id=":J0#3_0" function="internal">
        <lane id=":J0#3_0_0" index="0" speed="6.51" length="9.03" shape="738.80,3016.80 738.45,3014.35 737.40,3012.60 735.65,3011.55 733.20,3011.20"/>
    </edge>
    <edge id=":J0#3_1" function="internal">
        <lane id=":J0#3_1_0" index="0" speed="13.89" length="33.60" shape="738.80,3016.80 738.80,2983.20"/>
        <lane id=":J0#3_1_1" index="1" speed="13.89" length="33.60" shape="742.00,3016.80 742.00,2983.20"/>
        <lane id=":J0#3_1_2" index="2" speed="13.89" length="33.60" shape="745.20,3016.80 745.20,2983.20"/>
    </edge>
    <edge id=":J0#3_4" function="internal">
        <lane id=":J0#3_4_0" index="0" speed="11.36" length="29.67" shape="748.40,3016.80 749.55,3008.75 753.00,3003.00 758.75,2999.55 766.80,2998.40"/>
    </edge>
    <edge id=":J0#3_5" function="internal">
        <lane id=":J0#3_5_0" index="0" speed="6.51" length="9.03" shape="766.80,3011.20 764.35,3011.55 762.60,3012.60 761.55,3014.35 761.20,3016.80"/>
    </edge>
    <edge id=":J0#3_6" function="internal">
        <lane id=":J0#3_6_0" index="0" speed="13.89" length="33.60" shape="766.80,3011.20 733.20,3011.20"/>
        <lane id=":J0#3_6_1" index="1" speed="13.89" length="33.60" shape="766.80,3008.00 733.20,3008.00"/>
        <lane id=":J0#3_6_2" index="2" speed="13.89" length="33.60" shape="766.80,3004.80 733.20,3004.80"/>
    </edge>
    <edge id=":J0#3_9" function="internal">
        <lane id=":J0#3_9_0" index="0" speed="11.36" length="29.67" shape="766.80,3001.60 758.75,3000.45 753.00,2997.00 749.55,2991.25 748.40,2983.20"/>
    </edge>
    <edge id=":J0#3_10" function="internal">
        <lane id=":J0#3_10_0" index="0" speed="6.51" length="9.03" shape="761.20,2983.20 761.55,2985.65 762.60,2987.40 764.35,2988.45 766.80,2988.80"/>
    </edge>
    <edge id=":J0#3_11" function="internal">
        <lane id=":J0#3_11_0" index="0" speed="13.89" length="33.60" shape="761.20,2983.20 761.20,3016.80"/>
        <lane id=":J0#3_11_1" index="1" speed="13.89" length="33.60" shape="758.00,2983.20 758.00,3016.80"/>
        <lane id=":J0#3_11_2" index="2" speed="13.89" length="33.60" shape="754.80,2983.20 754.80,3016.80"/>
    </edge>
    <edge id=":J0#3_14" function="internal">
        <lane id=":J0#3_14_0" index="0" speed="11.36" length="29.67" shape="751.60,2983.20 750.45,2991.25 747.00,2997.00 741.25,3000.45 733.20,3001.60"/>
    </edge>
    <edge id=":J0#3_15" function="internal">
        <lane id=":J0#3_15_0" index="0" speed="6.51" length="9.03" shape="733.20,2988.80 735.65,2988.45 737.40,2987.40 738.45,2985.65 738.80,2983.20"/>
    </edge>
    <edge id=":J0#3_16" function="internal">
        <lane id=":J0#3_16_0" index="0" speed="13.89" length="33.60" shape="733.20,2992.00 766.80,2992.00"/>
        <lane id=":J0#3_16_1" index="1" speed="13.89" length="33.60" shape="733.20,2995.20 766.80,2995.20"/>
        <lane id=":J0#3_16_2" index="2" speed="13.89" length="33.60" shape="733.20,2998.40 766.80,2998.40"/>
    </edge>
    <edge id=":J0#3_19" function="internal">
        <lane id=":J0#3_19_0" index="0" speed="11.36" length="29.67" shape="733.20,2998.40 741.25,2999.55 747.00,3003.00 750.45,3008.75 751.60,3016.80"/>
    </edge>
    <edge id=":J1#0_0" function="internal">
        <lane id=":J1#0_0_0" index="0" speed="6.51" length="9.03" shape="1488.80,766.80 1488.45,764.35 1487.40,762.60 1485.65,761.55 1483.20,761.20"/>
    </edge>
    <edge id=":J1#0_1" function="internal">
        <lane id=":J1#0_1_0" index="0" speed="13.89" length="33.60" shape="1488.80,766.80 1488.80,733.20"/>
        <lane id=":J1#0_1_1" index="1" speed="13.89" length="33.60" shape="1492.00,766.80 1492.00,733.20"/>
        <lane id=":J1#0_1_2" index="2" speed="13.89" length="33.60" shape="1495.20,766.80 1495.20,733.20"/>
    </edge>
    <edge id=":J1#0_4" function="internal">
        <lane id=":J1#0_4_0" index="0" speed="11.36" length="29.68" shape="1498.40,766.80 1499.55,758.75 1503.00,753.00 1508.75,749.55 1516.80,748.40"/>
    </edge>
    <edge id=":J1#0_5" function="internal">
        <lane id=":J1#0_5_0" index="0" speed="6.51" length="9.03" shape="1516.80,761.20 1514.35,761.55 1512.60,762.60 1511.55,764.35 1511.20,766.80"/>
    </edge>
    <edge id=":J1#0_6" function="internal">
        <lane id=":J1#0_6_0" index="0" speed="13.89" length="33.60" shape="1516.80,761.20 1483.20,761.20"/>
        <lane id=":J1#0_6_1" index="1" speed="13.89" length="33.60" shape="1516.80,758.00 1483.20,758.00"/>
        <lane id=":J1#0_6_2" index="2" speed="13.89" length="33.60" shape="1516.80,754.80 1483.20,754.80"/>
    </edge>
    <edge id=":J1#0_9" function="internal">
        <lane id=":J1#0_9_0" index="0" speed="11.36" length="29.68" shape="1516.80,751.60 1508.75,750.45 1503.00,747.00 1499.55,741.25 1498.40,733.20"/>
    </edge>
    <edge id=":J1#0_10" function="internal">
        <lane id=":J1#0_10_0" index="0" speed="6.51" length="9.04" shape="1511.20,733.20 1511.55,735.65 1512.60,737.40 1514.35,738.45 1516.80,738.80"/>
    </edge>
    <edge id=":J1#0_11" function="internal">
        <lane id=":J1#0_11_0" index="0" speed="13.89" length="33.60" shape="1511.20,733.20 1511.20,766.80"/>
        <lane id=":J1#0_11_1" index="1" speed="13.89" length="33.60" shape="1508.00,733.20 1508.00,766.80"/>
        <lane id=":J1#0_11_2" index="2" speed="13.89" length="33.60" shape="1504.80,733.20 1504.80,766.80"/>
    </edge>
    <edge id=":J1#0_14" function="internal">
        <lane id=":J1#0_14_0" index="0" speed="11.36" length="29.67" shape="1501.60,733.20 1500.45,741.25 1497.00,747.00 1491.25,750.45 1483.20,751.60"/>
    </edge>
    <edge id=":J1#0_15" function="internal">
        <lane id=":J1#0_15_0" index="0" speed="6.51" length="9.03" shape="1483.20,738.80 1485.65,738.45 1487.40,737.40 1488.45,735.65 1488.80,733.20"/>
    </edge>
    <edge id=":J1#0_16" function="internal">
        <lane id=":J1#0_16_0" index="0" speed="13.89" length="33.60" shape="1483.20,738.80 1516.80,738.80"/>
        <lane id=":J1#0_16_1" index="1" speed="13.89" length="33.60" shape="1483.20,742.00 1516.80,742.00"/>
        <lane id=":J1#0_16_2" index="2" speed="13.89" length="33.60" shape="1483.20,745.20 1516.80,745.20"/>
    </edge>
    <edge id=":J1#0_19" function="internal">
        <lane id=":J1#0_19_0" index="0" speed="11.36" length="29.68" shape="1483.20,748.40 1491.25,749.55 1497.00,753.00 1500.45,758.75 1501.60,766.80"/>
    </edge>
    <edge id=":J1#1_0" function="internal">
        <lane id=":J1#1_0_0" index="0" speed="6.51" length="9.03" shape="1488.80,1516.80 1488.45,1514.35 1487.40,1512.60 1485.65,1511.55 1483.20,1511.20"/>
    </edge>
    <edge id=":J1#1_1" function="internal">
        <lane id=":J1#1_1_0" index="0" speed="13.89" length="33.60" shape="1488.80,1516.80 1488.80,1483.20"/>
        <lane id=":J1#1_1_1" index="1" speed="13.89" length="33.60" shape="1492.00,1516.80 1492.00,1483.20"/>
        <lane id=":J1#1_1_2" index="2" speed="13.89" length="33.60" shape="1495.20,1516.80 1495.20,1483.20"/>
    </edge>
    <edge id=":J1#1_4" function="internal">
        <lane id=":J1#1_4_0" index="0" speed="11.36" length="29.67" shape="1498.40,1516.80 1499.55,1508.75 1503.00,1503.00 1508.75,1499.55 1516.80,1498.40"/>
    </edge>
    <edge id=":J1#1_5" function="internal">
        <lane id=":J1#1_5_0" index="0" speed="6.51" length="9.03" shape="1516.80,1511.20 1514.35,1511.55 1512.60,1512.60 1511.55,1514.35 1511.20,1516.80"/>
    </edge>
    <edge id=":J1#1_6" function="internal">
        <lane id=":J1#1_6_0" index="0" speed="13.89" length="33.60" shape="1516.80,1511.20 1483.20,1511.20"/>
        <lane id=":J1#1_6_1" index="1" speed="13.89" length="33.60" shape="1516.80,1508.00 1483.20,1508.00"/>
        <lane id=":J1#1_6_2" index="2" speed="13.89" length="33.60" shape="1516.80,1504.80 1483.20,1504.80"/>
    </edge>
    <edge id=":J1#1_9" function="internal">
        <lane id=":J1#1_9_0" index="0" speed="11.36" length="29.67" shape="1516.80,1501.60 1508.75,1500.45 1503.00,1497.00 1499.55,1491.25 1498.40,1483.20"/>
    </edge>
    <edge id=":J1#1_10" function="internal">
        <lane id=":J1#1_10_0" index="0" speed="6.51" length="9.03" shape="1511.20,1483.20 1511.55,1485.65 1512.60,1487.40 1514.35,1488.45 1516.80,1488.80"/>
    </edge>
    <edge id=":J1#1_11" function="internal">
        <lane id=":J1#1_11_0" index="0" speed="13.89" length="33.60" shape="1511.20,1483.20 1511.20,1516.80"/>
        <lane id=":J1#1_11_1" index="1" speed="13.89" length="33.60" shape="1508.00,1483.20 1508.00,1516.80"/>
        <lane id=":J1#1_11_2" index="2" speed="13.89" length="33.60" shape="1504.80,1483.20 1504.80,1516.80"/>
    </edge>
    <edge id=":J1#1_14" function="internal">
        <lane id=":J1#1_14_0" index="0" speed="11.36" length="29.67" shape="1501.60,1483.20 1500.45,1491.25 1497.00,1497.00 1491.25,1500.45 1483.20,1501.60"/>
    </edge>
    <edge id=":J1#1_15" function="internal">
        <lane id=":J1#1_15_0" index="0" speed="6.51" length="9.03" shape="1483.20,1488.80 1485.65,1488.45 1487.40,1487.40 1488.45,1485.65 1488.80,1483.20"/>
    </edge>
    <edge id=":J1#1_16" function="internal">
        <lane id=":J1#1_16_0" index="0" speed="13.89" length="33.60" shape="1483.20,1488.80 1516.80,1488.80"/>
        <lane id=":J1#1_16_1" index="1" speed="13.89" length="33.60" shape="1483.20,1492.00 1516.80,1492.00"/>
        <lane id=":J1#1_16_2" index="2" speed="13.89" length="33.60" shape="1483.20,1495.20 1516.80,1495.20"/>
    </edge>
    <edge id=":J1#1_19" function="internal">
        <lane id=":J1#1_19_0" index="0" speed="11.36" length="29.67" shape="1483.20,1498.40 1491.25,1499.55 1497.00,1503.00 1500.45,1508.75 1501.60,1516.80"/>
    </edge>
    <edge id=":J1#2_0" function="internal">
        <lane id=":J1#2_0_0" index="0" speed="6.51" length="9.03" shape="1488.80,2266.80 1488.45,2264.35 1487.40,2262.60 1485.65,2261.55 1483.20,2261.20"/>
    </edge>
    <edge id=":J1#2_1" function="internal">
        <lane id=":J1#2_1_0" index="0" speed="13.89" length="33.60" shape="1488.80,2266.80 1488.80,2233.20"/>
        <lane id=":J1#2_1_1" index="1" speed="13.89" length="33.60" shape="1492.00,2266.80 1492.00,2233.20"/>
        <lane id=":J1#2_1_2" index="2" speed="13.89" length="33.60" shape="1495.20,2266.80 1495.20,2233.20"/>
    </edge>
    <edge id=":J1#2_4" function="internal">
        <lane id=":J1#2_4_0" index="0" speed="11.36" length="29.67" shape="1498.40,2266.80 1499.55,2258.75 1503.00,2253.00 1508.75,2249.55 1516.80,2248.40"/>
    </edge>
    <edge id=":J1#2_5" function="internal">
        <lane id=":J1#2_5_0" index="0" speed="6.51" length="9.03" shape="1516.80,2261.20 1514.35,2261.55 1512.60,2262.60 1511.55,2264.35 1511.20,2266.80"/>
    </edge>
    <edge id=":J1#2_6" function="internal">
        <lane id=":J1#2_6_0" index="0" speed="13.89" length="33.60" shape="1516.80,2261.20 1483.20,2261.20"/>
        <lane id=":J1#2_6_1" index="1" speed="13.89" length="33.60" shape="1516.80,2258.00 1483.20,2258.00"/>
        <lane id=":J1#2_6_2" index="2" speed="13.89" length="33.60" shape="1516.80,2254.80 1483.20,2254.80"/>
    </edge>
    <edge id=":J1#2_9" function="internal">
        <lane id=":J1#2_9_0" index="0" speed="11.36" length="29.67" shape="1516.80,2251.60 1508.75,2250.45 1503.00,2247.00 1499.55,2241.25 1498.40,2233.20"/>
    </edge>
    <edge id=":J1#2_10" function="internal">
        <lane id=":J1#2_10_0" index="0" speed="6.51" length="9.03" shape="1511.20,2233.20 1511.55,2235.65 1512.60,2237.40 1514.35,2238.45 1516.80,2238.80"/>
    </edge>
    <edge id=":J1#2_11" function="internal">
        <lane id=":J1#2_11_0" index="0" speed="13.89" length="33.60" shape="1511.20,2233.20 1511.20,2266.80"/>
        <lane id=":J1#2_11_1" index="1" speed="13.89" length="33.60" shape="1508.00,2233.20 1508.00,2266.80"/>
        <lane id=":J1#2_11_2" index="2" speed="13.89" length="33.60" shape="1504.80,2233.20 1504.80,2266.80"/>
    </edge>
    <edge id=":J1#2_14" function="internal">
        <lane id=":J1#2_14_0" index="0" speed="11.36" length="29.67" shape="1501.60,2233.20 1500.45,2241.25 1497.00,2247.00 1491.25,2250.45 1483.20,2251.60"/>
    </edge>
    <edge id=":J1#2_15" function="internal">
        <lane id=":J1#2_15_0" index="0" speed="6.51" length="9.03" shape="1483.20,2238.80 1485.65,2238.45 1487.40,2237.40 1488.45,2235.65 1488.80,2233.20"/>
    </edge>
    <edge id=":J1#2_16" function="internal">
        <lane id=":J1#2_16_0" index="0" speed="13.89" length="33.60" shape="1483.20,2238.80 1516.80,2238.80"/>
        <lane id=":J1#2_16_1" index="1" speed="13.89" length="33.60" shape="1483.20,2242.00 1516.80,2242.00"/>
        <lane id=":J1#2_16_2" index="2" speed="13.89" length="33.60" shape="1483.20,2245.20 1516.80,2245.20"/>
    </edge>
    <edge id=":J1#2_19" function="internal">
        <lane id=":J1#2_19_0" index="0" speed="11.36" length="29.67" shape="1483.20,2248.40 1491.25,2249.55 1497.00,2253.00 1500.45,2258.75 1501.60,2266.80"/>
    </edge>
    <edge id=":J1#3_0" function="internal">
        <lane id=":J1#3_0_0" index="0" speed="6.51" length="9.03" shape="1488.80,3016.80 1488.45,3014.35 1487.40,3012.60 1485.65,3011.55 1483.20,3011.20"/>
    </edge>
    <edge id=":J1#3_1" function="internal">
        <lane id=":J1#3_1_0" index="0" speed="13.89" length="33.60" shape="1488.80,3016.80 1488.80,2983.20"/>
        <lane id=":J1#3_1_1" index="1" speed="13.89" length="33.60" shape="1492.00,3016.80 1492.00,2983.20"/>
        <lane id=":J1#3_1_2" index="2" speed="13.89" length="33.60" shape="1495.20,3016.80 1495.20,2983.20"/>
    </edge>
    <edge id=":J1#3_4" function="internal">
        <lane id=":J1#3_4_0" index="0" speed="11.36" length="29.67" shape="1498.40,3016.80 1499.55,3008.75 1503.00,3003.00 1508.75,2999.55 1516.80,2998.40"/>
    </edge>
    <edge id=":J1#3_5" function="internal">
        <lane id=":J1#3_5_0" index="0" speed="6.51" length="9.03" shape="1516.80,3011.20 1514.35,3011.55 1512.60,3012.60 1511.55,3014.35 1511.20,3016.80"/>
    </edge>
    <edge id=":J1#3_6" function="internal">
        <lane id=":J1#3_6_0" index="0" speed="13.89" length="33.60" shape="1516.80,3011.20 1483.20,3011.20"/>
        <lane id=":J1#3_6_1" index="1" speed="13.89" length="33.60" shape="1516.80,3008.00 1483.20,3008.00"/>
        <lane id=":J1#3_6_2" index="2" speed="13.89" length="33.60" shape="1516.80,3004.80 1483.20,3004.80"/>
    </edge>
    <edge id=":J1#3_9" function="internal">
        <lane id=":J1#3_9_0" index="0" speed="11.36" length="29.67" shape="1516.80,3001.60 1508.75,3000.45 1503.00,2997.00 1499.55,2991.25 1498.40,2983.20"/>
    </edge>
    <edge id=":J1#3_10" function="internal">
        <lane id=":J1#3_10_0" index="0" speed="6.51" length="9.03" shape="1511.20,2983.20 1511.55,2985.65 1512.60,2987.40 1514.35,2988.45 1516.80,2988.80"/>
    </edge>
    <edge id=":J1#3_11" function="internal">
        <lane id=":J1#3_11_0" index="0" speed="13.89" length="33.60" shape="1511.20,2983.20 1511.20,3016.80"/>
        <lane id=":J1#3_11_1" index="1" speed="13.89" length="33.60" shape="1508.00,2983.20 1508.00,3016.80"/>
        <lane id=":J1#3_11_2" index="2" speed="13.89" length="33.60" shape="1504.80,2983.20 1504.80,3016.80"/>
    </edge>
    <edge id=":J1#3_14" function="internal">
        <lane id=":J1#3_14_0" index="0" speed="11.36" length="29.67" shape="1501.60,2983.20 1500.45,2991.25 1497.00,2997.00 1491.25,3000.45 1483.20,3001.60"/>
    </edge>
    <edge id=":J1#3_15" function="internal">
        <lane id=":J1#3_15_0" index="0" speed="6.51" length="9.03" shape="1483.20,2988.80 1485.65,2988.45 1487.40,2987.40 1488.45,2985.65 1488.80,2983.20"/>
    </edge>
    <edge id=":J1#3_16" function="internal">
        <lane id=":J1#3_16_0" index="0" speed="13.89" length="33.60" shape="1483.20,2988.80 1516.80,2988.80"/>
        <lane id=":J1#3_16_1" index="1" speed="13.89" length="33.60" shape="1483.20,2992.00 1516.80,2992.00"/>
        <lane id=":J1#3_16_2" index="2" speed="13.89" length="33.60" shape="1483.20,2995.20 1516.80,2995.20"/>
    </edge>
    <edge id=":J1#3_19" function="internal">
        <lane id=":J1#3_19_0" index="0" speed="11.36" length="29.67" shape="1483.20,2998.40 1491.25,2999.55 1497.00,3003.00 1500.45,3008.75 1501.60,3016.80"/>
    </edge>
    <edge id=":J2#0_0" function="internal">
        <lane id=":J2#0_0_0" index="0" speed="6.51" length="9.03" shape="2238.80,766.90 2238.45,764.45 2237.40,762.70 2235.65,761.65 2233.20,761.30"/>
    </edge>
    <edge id=":J2#0_1" function="internal">
        <lane id=":J2#0_1_0" index="0" speed="13.89" length="33.70" shape="2238.80,766.90 2238.80,733.20"/>
        <lane id=":J2#0_1_1" index="1" speed="13.89" length="33.70" shape="2242.00,766.90 2242.00,733.20"/>
        <lane id=":J2#0_1_2" index="2" speed="13.89" length="33.70" shape="2245.20,766.90 2245.20,733.20"/>
    </edge>
    <edge id=":J2#0_4" function="internal">
        <lane id=":J2#0_4_0" index="0" speed="11.38" length="29.75" shape="2248.40,766.90 2249.55,758.81 2253.00,753.02 2258.75,749.56 2266.80,748.40"/>
    </edge>
    <edge id=":J2#0_5" function="internal">
        <lane id=":J2#0_5_0" index="0" speed="6.53" length="9.11" shape="2266.80,761.20 2264.35,761.56 2262.60,762.62 2261.55,764.41 2261.20,766.90"/>
    </edge>
    <edge id=":J2#0_6" function="internal">
        <lane id=":J2#0_6_0" index="0" speed="13.89" length="33.60" shape="2266.80,761.20 2233.20,761.30"/>
        <lane id=":J2#0_6_1" index="1" speed="13.89" length="33.60" shape="2266.80,758.00 2233.20,758.10"/>
        <lane id=":J2#0_6_2" index="2" speed="13.89" length="33.60" shape="2266.80,754.80 2233.20,754.90"/>
    </edge>
    <edge id=":J2#0_9" function="internal">
        <lane id=":J2#0_9_0" index="0" speed="11.36" length="29.67" shape="2266.80,751.60 2258.75,750.45 2253.00,747.00 2249.55,741.25 2248.40,733.20"/>
    </edge>
    <edge id=":J2#0_10" function="internal">
        <lane id=":J2#0_10_0" index="0" speed="6.51" length="9.03" shape="2261.20,733.20 2261.55,735.65 2262.60,737.40 2264.35,738.45 2266.80,738.80"/>
    </edge>
    <edge id=":J2#0_11" function="internal">
        <lane id=":J2#0_11_0" index="0" speed="13.89" length="33.70" shape="2261.20,733.20 2261.20,766.90"/>
        <lane id=":J2#0_11_1" index="1" speed="13.89" length="33.70" shape="2258.00,733.20 2258.00,766.90"/>
        <lane id=":J2#0_11_2" index="2" speed="13.89" length="33.70" shape="2254.80,733.20 2254.80,766.90"/>
    </edge>
    <edge id=":J2#0_14" function="internal">
        <lane id=":J2#0_14_0" index="0" speed="11.38" length="29.76" shape="2251.60,733.20 2250.45,741.29 2247.00,747.07 2241.25,750.54 2233.20,751.70"/>
    </edge>
    <edge id=":J2#0_15" function="internal">
        <lane id=":J2#0_15_0" index="0" speed="6.53" length="9.11" shape="2233.20,738.90 2235.65,738.54 2237.40,737.47 2238.45,735.69 2238.80,733.20"/>
    </edge>
    <edge id=":J2#0_16" function="internal">
        <lane id=":J2#0_16_0" index="0" speed="13.89" length="33.60" shape="2233.20,738.90 2266.80,738.80"/>